// * * * * * * * * * //
            FoamFile
{
                version 0.5;
                format ascii;
                root "ROOT";
	case "CASE";

    class dictionary;
        object banana;
    }
    method scotch;
    numberOfSubdomains 10;
scotchCoeffs
{
}