/*--------------------------------*- C++ -*----------------------------------*\
  =========                 |
  \\      /  F ield         | OpenFOAM: The Open Source CFD Toolbox
   \\    /   O peration     | Website:  https://openfoam.org
    \\  /    A nd           | Version:  8
     \\/     M anipulation  |
\*---------------------------------------------------------------------------*/
/*   Windows 32 and 64 bit porting by blueCAPE: http://www.bluecape.com.pt   *\
|  Based on Windows porting (2.0.x v4) by Symscape: http://www.symscape.com   |
\*---------------------------------------------------------------------------*/
FoamFile
{
    version     2.0;
    format      binary;
    class       polyBoundaryMesh;
    location    "constant/polyMesh";
    object      boundary;
}
// * * * * * * * * * * * * * * * * * * * * * * * * * * * * * * * * * * * * * //

4
(
    inlet
    {
        type            patch;
        nFaces          728;
        startFace       141178;
    }
    outlet
    {
        type            patch;
        nFaces          728;
        startFace       141906;
    }
    ground
    {
        type            wall;
        inGroups        List<word> 1(wall);
        nFaces          3484;
        startFace       142634;
    }
    frontAndBack
    {
        type            patch;
        nFaces          5360;
        startFace       146118;
    }
)

// ************************************************************************* //
