/*--------------------------------*- C++ -*----------------------------------*\
| =========                 |                                                 |
| \\      /  F ield         | OpenFOAM: The Open Source CFD Toolbox           |
|  \\    /   O peration     | Version:  2.3.0                                 |
|   \\  /    A nd           | Web:      www.OpenFOAM.com                      |
|    \\/     M anipulation  |                                                 |
\*---------------------------------------------------------------------------*/
FoamFile
{
        version 2.0;
        format ascii;
        class dictionary;
        location system;
        object blockMeshDict;
}
convertToMeters 1;

vertices
(
(526.034 524.739 0)
(-526.034 524.739 0)
(-526.034 -824.715 0)
(526.034 -824.715 0)
(526.034 524.739 286.518)
(-526.034 524.739 286.518)
(-526.034 -824.715 286.518)
(526.034 -824.715 286.518)
);
blocks
(
        hex (0 1 2 3 4 5 6 7) (52 67 14) simpleGrading (1 1 1)
);
edges
(
);
boundary
(
        inlet
{
        type patch;
        faces
        (
                (0 1 4 5)
        );
}
        outlet
{
        type patch;
        faces
        (
                (2 3 6 7)
        );
}
        ground
{
        type wall;
        faces
        (
                (0 1 2 3)
        );
}
        frontAndBack
{
        type patch;
        faces
        (
                        (1 2 5 6)
                        (0 3 4 7)
                        (4 5 6 7)
        );
}
);
        